data/raw/dsuite_networks_scaled_v1.1/spm_u/lines_spm_u_scaled.dss
new line.11630813 phases=3 bus1=9067036 bus2=9493833 linecode=default length=0.108 units=m
new line.5193552 phases=3 bus1=15861936 bus2=11296074 linecode=UNKNOWN_LV_Cable_M length=2.09 units=m
new line.5403184 phases=3 bus1=12506662 bus2=10640935 linecode=Cable_230V_25_CU length=8.6 units=m
new line.5423167 phases=3 bus1=12950269 bus2=12950336 linecode=Cable_230V_25_AL length=0.0946 units=m
new line.5423173 phases=3 bus1=12950289 bus2=14069397 linecode=Cable_230V_25_CU length=0.109 units=m
new line.5426207 phases=3 bus1=15717560 bus2=10722436 linecode=Cable_230V_25_CU length=2.12 units=m
new line.8858333 phases=3 bus1=15717560 bus2=13097510 linecode=Cable_230V_0.1_CU length=2.7 units=m
new line.5426960 phases=3 bus1=13097510 bus2=11289596 linecode=Cable_230V_25_AL length=0.807 units=m
new line.5427231 phases=3 bus1=14287597 bus2=10639856 linecode=Cable_230V_25_CU length=1.16 units=m
new line.5431296 phases=3 bus1=13352388 bus2=9663013 linecode=Cable_230V_4_CU length=0.338 units=m
new line.7133214 phases=3 bus1=9493838 bus2=17500515 linecode=CONNECTOR length=0.0432 units=m
new line.7133232 phases=3 bus1=17500516 bus2=17500515 linecode=CONNECTOR length=0.334 units=m
new line.8849649 phases=3 bus1=14069393 bus2=14612754 linecode=Cable_230V_0.15_CU length=3.56 units=m
new line.8850192 phases=3 bus1=15868917 bus2=14299763 linecode=Cable_230V_0.15_CU length=1.35 units=m
new line.8858096 phases=3 bus1=12806558 bus2=15886330 linecode=Cable_230V_0.1_AL length=0.248 units=m
new line.8850211 phases=3 bus1=14069393 bus2=13439445 linecode=UNKNOWN_LV_Cable_M length=0.163 units=m
new line.8858366 phases=3 bus1=13439445 bus2=13518947 linecode=UNKNOWN_LV_Cable_M length=0.121 units=m
new line.8858297 phases=3 bus1=12506662 bus2=12824047 linecode=Cable_230V_0.15_CU length=1.51 units=m
new line.8871824 phases=3 bus1=12824047 bus2=12803912 linecode=Cable_230V_0.15_CU length=0.248 units=m
new line.11629042 phases=3 bus1=9067026 bus2=9493838 linecode=BUSBAR length=0.108 units=m
new line.8854833 phases=3 bus1=12963508 bus2=14287597 linecode=Cable_230V_0.2_CU length=1.09 units=m
new line.2913350 phases=3 bus1=12963508 bus2=12963506 linecode=Cable_230V_4_CU length=0.471 units=m
new line.3048007 phases=3 bus1=15860481 bus2=10722423 linecode=Cable_230V_25_CU length=1.83 units=m
new line.3538754 phases=3 bus1=15716756 bus2=13478091 linecode=Cable_230V_0.25_CU length=0.67 units=m
new line.5442263 phases=3 bus1=13478094 bus2=13478091 linecode=Cable_230V_185_AL_WAVEF length=0.887 units=m
new line.3538798 phases=3 bus1=13478094 bus2=9363054 linecode=Cable_230V_0.25_CU length=4.69 units=m
new line.3948936 phases=3 bus1=15887319 bus2=12433527 linecode=Cable_230V_25_CU length=1.62 units=m
new line.5176718 phases=3 bus1=12806558 bus2=12896606 linecode=UNKNOWN_LV_Cable_M length=2.25 units=m
new line.5176717 phases=3 bus1=15886330 bus2=14288004 linecode=default length=0.485 units=m
new line.8850179 phases=3 bus1=15707091 bus2=15861936 linecode=Cable_230V_0.1_AL length=0.302 units=m
new line.8850177 phases=3 bus1=15707091 bus2=12806558 linecode=Cable_230V_0.1_AL length=4.3 units=m
new line.5193550 phases=3 bus1=15707091 bus2=15886327 linecode=default length=0.416 units=m
new line.5251879 phases=3 bus1=14064586 bus2=11609722 linecode=Cable_230V_25_CU length=2.24 units=m
new line.8871727 phases=3 bus1=15919748 bus2=14064586 linecode=default length=0.353 units=m
new line.5251883 phases=3 bus1=15919748 bus2=10705658 linecode=Cable_230V_25_CU length=2.27 units=m
new line.5267110 phases=3 bus1=15889918 bus2=14030358 linecode=Cable_230V_0.0225_CU length=0.425 units=m
new line.5284655 phases=3 bus1=14064686 bus2=12572764 linecode=UNKNOWN_LV_Cable_M length=1.23 units=m
new line.8885423 phases=3 bus1=15868919 bus2=14064686 linecode=Cable_230V_0.1_CU length=2.24 units=m
new line.5284654 phases=3 bus1=15868919 bus2=9775952 linecode=Cable_230V_35_AL_ACT length=0.949 units=m
new line.5289640 phases=3 bus1=14064537 bus2=15886317 linecode=Cable_230V_0.0225_CU length=0.349 units=m
new line.5289641 phases=3 bus1=14064537 bus2=15860468 linecode=Cable_230V_0.25_CU length=1.39 units=m
new line.5284643 phases=3 bus1=14013753 bus2=17500511 linecode=Cable_230V_0.15_CU length=9.56 units=m
new line.8850190 phases=3 bus1=15889918 bus2=15728384 linecode=Cable_230V_0.1_AL length=2.58 units=m
new line.5284586 phases=3 bus1=9683684 bus2=15728384 linecode=Cable_230V_25_CU length=0.534 units=m
new line.5284589 phases=3 bus1=10722424 bus2=15887326 linecode=Cable_230V_25_CU length=1.48 units=m
new line.8871746 phases=3 bus1=15802467 bus2=15868919 linecode=Cable_230V_0.1_CU length=1.24 units=m
new line.8858229 phases=3 bus1=15887326 bus2=15802467 linecode=Cable_230V_0.1_CU length=2.29 units=m
new line.5284653 phases=3 bus1=15802467 bus2=9683689 linecode=Cable_230V_25_CU length=0.483 units=m
new line.5354881 phases=3 bus1=9364676 bus2=17500513 linecode=UNKNOWN_LV_Cable_M length=0.216 units=m
new line.5367809 phases=3 bus1=9364677 bus2=17500513 linecode=Cable_230V_0.1_AL length=0.216 units=m
new line.8858237 phases=3 bus1=15728384 bus2=9364677 linecode=Cable_230V_0.1_AL length=1.65 units=m
new line.8854953 phases=3 bus1=15860481 bus2=14612867 linecode=Cable_230V_0.1_CU length=0.528 units=m
new line.8849917 phases=3 bus1=14612867 bus2=15887319 linecode=default length=1.33 units=m
new line.5354880 phases=3 bus1=14612867 bus2=9364676 linecode=UNKNOWN_LV_Cable_M length=1.98 units=m
new line.5402319 phases=3 bus1=9362039 bus2=17500509 linecode=UNKNOWN_LV_Cable_M length=0.216 units=m
new line.5402306 phases=3 bus1=9364678 bus2=17500509 linecode=UNKNOWN_LV_Cable_M length=0.216 units=m
new line.7054077 phases=3 bus1=15889918 bus2=9364678 linecode=UNKNOWN_LV_Cable_M length=4.4 units=m
new line.5402318 phases=3 bus1=14069426 bus2=9362039 linecode=UNKNOWN_LV_Cable_M length=0.458 units=m
new line.5403201 phases=3 bus1=17500519 bus2=9357453 linecode=UNKNOWN_LV_Cable_M length=0.217 units=m
new line.8850202 phases=3 bus1=14013753 bus2=12963476 linecode=Cable_230V_0.1_CU length=2.27 units=m
new line.8858325 phases=3 bus1=12963476 bus2=15716756 linecode=Cable_230V_0.1_CU length=1.87 units=m
new line.5423177 phases=3 bus1=12963476 bus2=9670128 linecode=Cable_230V_4_CU length=0.739 units=m
new line.8885447 phases=3 bus1=14125067 bus2=15868917 linecode=Cable_230V_0.15_CU length=2.18 units=m
new line.5423855 phases=3 bus1=14125067 bus2=12433840 linecode=Cable_230V_25_CU length=2.21 units=m
new line.5423686 phases=3 bus1=15890097 bus2=10627928 linecode=Cable_230V_25_CU length=2.15 units=m
new line.5418913 phases=3 bus1=12824047 bus2=10639843 linecode=Cable_230V_25_CU length=2.26 units=m
new line.5423776 phases=3 bus1=15868917 bus2=14069476 linecode=UNKNOWN_LV_Cable_M length=0.842 units=m
new line.5423844 phases=3 bus1=14069476 bus2=11197487 linecode=UNKNOWN_LV_Cable_M length=2.24 units=m
new line.5426856 phases=3 bus1=14287602 bus2=10741461 linecode=Cable_230V_0.15_CU length=2.05 units=m
new line.5427234 phases=3 bus1=9665663 bus2=14069088 linecode=Cable_230V_25_CU length=0.234 units=m
new line.5405888 phases=3 bus1=9364679 bus2=17500509 linecode=Cable_230V_0.1_AL length=0.216 units=m
new line.8858109 phases=3 bus1=15861936 bus2=9364679 linecode=Cable_230V_0.1_AL length=6.37 units=m
new line.8871839 phases=3 bus1=15717554 bus2=15890097 linecode=Cable_230V_0.15_CU length=0.461 units=m
new line.5426540 phases=3 bus1=15717554 bus2=10626849 linecode=Cable_230V_25_CU length=2.31 units=m
new line.5430657 phases=3 bus1=9665661 bus2=15892362 linecode=Cable_230V_25_CU length=0.565 units=m
new line.5431297 phases=3 bus1=15891076 bus2=13080858 linecode=Cable_230V_0.0225_CU length=1.46 units=m
new line.5431307 phases=3 bus1=15890092 bus2=10619155 linecode=Cable_230V_25_CU length=1.53 units=m
new line.8858318 phases=3 bus1=15717529 bus2=12506662 linecode=Cable_230V_0.15_CU length=0.735 units=m
new line.5419210 phases=3 bus1=15717529 bus2=10617915 linecode=Cable_230V_25_CU length=2.14 units=m
new line.8850205 phases=3 bus1=15860466 bus2=15890092 linecode=Cable_230V_0.1_CU length=2.01 units=m
new line.5426861 phases=3 bus1=13352388 bus2=15860466 linecode=Cable_230V_0.0225_CU length=1.94 units=m
new line.5426858 phases=3 bus1=14287602 bus2=12731432 linecode=Cable_230V_0.15_CU length=1.42 units=m
new line.3407058 phases=3 bus1=12731432 bus2=14069426 linecode=UNKNOWN_LV_Cable_M length=2.33 units=m
new line.5431308 phases=3 bus1=12731432 bus2=12731542 linecode=Cable_230V_0.15_CU length=2.6 units=m
new line.5418688 phases=3 bus1=14064732 bus2=12748034 linecode=Cable_230V_25_CU length=1.97 units=m
new line.5418912 phases=3 bus1=12803912 bus2=13134108 linecode=Cable_230V_25_CU length=0.11 units=m
new line.8858351 phases=3 bus1=15890092 bus2=12810281 linecode=Cable_230V_0.1_CU length=0.845 units=m
new line.5431306 phases=3 bus1=12810281 bus2=12077335 linecode=Cable_230V_25_CU length=1.68 units=m
new line.8871830 phases=3 bus1=15890097 bus2=14069433 linecode=Cable_230V_0.15_CU length=2.24 units=m
new line.8871827 phases=3 bus1=14069433 bus2=14125067 linecode=Cable_230V_0.15_CU length=0.416 units=m
new line.5423680 phases=3 bus1=14069433 bus2=10616850 linecode=Cable_230V_25_CU length=2.15 units=m
new line.5434634 phases=3 bus1=15891047 bus2=17500516 linecode=Cable_230V_0.2_CU length=2.03 units=m
new line.8849654 phases=3 bus1=15860466 bus2=13518945 linecode=Cable_230V_0.2_CU length=0.88 units=m
new line.8858369 phases=3 bus1=13518945 bus2=12963508 linecode=Cable_230V_0.2_CU length=4.83 units=m
new line.5443555 phases=3 bus1=13518945 bus2=11280598 linecode=Cable_230V_185_AL_WAVE length=0.762 units=m
new line.8871850 phases=3 bus1=14287597 bus2=14068989 linecode=Cable_230V_0.2_CU length=0.436 units=m
new line.8885458 phases=3 bus1=14068989 bus2=14069393 linecode=Cable_230V_0.2_CU length=1.37 units=m
new line.5427232 phases=3 bus1=14068989 bus2=10639857 linecode=Cable_230V_25_CU length=1.11 units=m
new line.8858094 phases=3 bus1=15886330 bus2=13518951 linecode=Cable_230V_0.1_AL length=3.33 units=m
new line.5445066 phases=3 bus1=9354843 bus2=13518951 linecode=Cable_230V_95_AL length=0.357 units=m
new line.8873237 phases=3 bus1=15716752 bus2=15717529 linecode=Cable_230V_0.15_CU length=0.519 units=m
new line.6649133 phases=3 bus1=15716752 bus2=10616895 linecode=Cable_230V_25_CU length=2.14 units=m
new line.8860834 phases=3 bus1=14299763 bus2=15860473 linecode=Cable_230V_0.15_CU length=0.357 units=m
new line.8873257 phases=3 bus1=15860473 bus2=15716752 linecode=Cable_230V_0.15_CU length=2.02 units=m
new line.6649134 phases=3 bus1=15860473 bus2=10626251 linecode=Cable_230V_25_CU length=2.07 units=m
new line.8850189 phases=3 bus1=15728366 bus2=15887326 linecode=Cable_230V_0.1_CU length=1.0 units=m
new line.8849684 phases=3 bus1=15728366 bus2=15860481 linecode=Cable_230V_0.1_CU length=0.216 units=m
new line.6721570 phases=3 bus1=15728366 bus2=15890119 linecode=default length=0.401 units=m
new line.8873876 phases=3 bus1=14030186 bus2=15717554 linecode=Cable_230V_0.15_CU length=2.31 units=m
new line.6943842 phases=3 bus1=14030186 bus2=10621393 linecode=Cable_230V_25_CU length=2.52 units=m
new line.7133196 phases=3 bus1=9493833 bus2=17500512 linecode=CONNECTOR length=0.0432 units=m
new line.7133203 phases=3 bus1=17500511 bus2=17500512 linecode=CONNECTOR length=0.0903 units=m
new line.8850209 phases=3 bus1=15887323 bus2=15892362 linecode=Cable_230V_0.0225_CU length=2.04 units=m
new line.8854818 phases=3 bus1=14021919 bus2=14287602 linecode=Cable_230V_0.15_CU length=3.12 units=m
new line.8854825 phases=3 bus1=14612754 bus2=12803949 linecode=Cable_230V_0.15_CU length=0.413 units=m
new line.8871858 phases=3 bus1=12803949 bus2=14021919 linecode=Cable_230V_0.15_CU length=2.02 units=m
new line.8858306 phases=3 bus1=14013739 bus2=14064732 linecode=Cable_230V_95_AL length=0.567 units=m
new line.8850200 phases=3 bus1=15891047 bus2=15886315 linecode=Cable_230V_0.0225_CU length=0.358 units=m
new line.8858312 phases=3 bus1=12950336 bus2=15886315 linecode=Cable_230V_25_CU length=1.87 units=m
new line.8862958 phases=3 bus1=15886315 bus2=14069088 linecode=Cable_230V_0.0225_CU length=0.357 units=m
new line.8858308 phases=3 bus1=15868834 bus2=14013739 linecode=Cable_230V_95_AL length=0.63 units=m
new line.8858311 phases=3 bus1=12731543 bus2=15868834 linecode=Cable_230V_95_AL length=2.8 units=m
new line.8858343 phases=3 bus1=15892362 bus2=13352384 linecode=Cable_230V_0.0225_CU length=0.811 units=m
new line.5427220 phases=3 bus1=13352384 bus2=13352388 linecode=Cable_230V_185_AL_WAVEF length=2.11 units=m
new line.8858316 phases=3 bus1=12895826 bus2=9363052 linecode=Cable_230V_0.25_AL length=0.581 units=m
new line.8850520 phases=3 bus1=15860468 bus2=12790893 linecode=UNKNOWN_LV_Cable_M length=0.19 units=m
new line.8863655 phases=3 bus1=12790893 bus2=17500519 linecode=UNKNOWN_LV_Cable_M length=1.69 units=m
new line.8871722 phases=3 bus1=14064586 bus2=15892386 linecode=default length=0.22 units=m
new line.8871813 phases=3 bus1=14064732 bus2=14431338 linecode=Cable_230V_95_AL length=0.266 units=m
new line.8871845 phases=3 bus1=13097510 bus2=9363053 linecode=Cable_230V_0.1_CU length=2.64 units=m
new line.8858329 phases=3 bus1=14069397 bus2=15886305 linecode=Cable_230V_25_CU length=2.52 units=m
new line.8871854 phases=3 bus1=15886305 bus2=10619156 linecode=Cable_230V_25_CU length=1.18 units=m
new line.8871818 phases=3 bus1=12803912 bus2=15717533 linecode=Cable_230V_0.15_CU length=0.247 units=m
new line.8888164 phases=3 bus1=14064686 bus2=15868914 linecode=Cable_230V_0.1_CU length=0.478 units=m
new line.2897243 phases=3 bus1=14021919 bus2=11992358 linecode=Cable_230V_25_CU length=0.956 units=m
new line.2897244 phases=3 bus1=14612754 bus2=11197486 linecode=Cable_230V_25_CU length=1.17 units=m
new line.8855194 phases=3 bus1=12806556 bus2=14030186 linecode=Cable_230V_0.15_CU length=0.32 units=m
new line.8849750 phases=3 bus1=12731542 bus2=12806556 linecode=Cable_230V_0.15_CU length=2.34 units=m
new line.3201532 phases=3 bus1=12806556 bus2=10616394 linecode=Cable_230V_25_CU length=2.46 units=m
new line.3365430 phases=3 bus1=17500513 bus2=9363055 linecode=Cable_230V_0.1_AL length=0.216 units=m
new line.8850201 phases=3 bus1=9363055 bus2=15717560 linecode=Cable_230V_0.1_CU length=1.07 units=m
new line.3665362 phases=3 bus1=13134108 bus2=9665670 linecode=Cable_230V_4_CU length=0.772 units=m
new line.8855922 phases=3 bus1=15887319 bus2=14002207 linecode=default length=0.487 units=m
new line.8871735 phases=3 bus1=14002207 bus2=15919748 linecode=default length=1.17 units=m
new line.5267100 phases=3 bus1=14002207 bus2=10584929 linecode=Cable_230V_25_CU length=1.62 units=m
new line.5284663 phases=3 bus1=15868914 bus2=10731082 linecode=Cable_230V_25_CU length=1.16 units=m
new line.5340055 phases=3 bus1=9363052 bus2=17500518 linecode=Cable_230V_0.25_AL length=0.216 units=m
new line.5354878 phases=3 bus1=9363054 bus2=17500518 linecode=Cable_230V_0.25_AL length=0.216 units=m
new line.5354877 phases=3 bus1=9363053 bus2=17500518 linecode=Cable_230V_0.1_AL length=0.216 units=m
new line.5416058 phases=3 bus1=14013739 bus2=10629678 linecode=Cable_230V_25_CU length=1.49 units=m
new line.5416053 phases=3 bus1=15868834 bus2=11992359 linecode=Cable_230V_25_CU length=1.47 units=m
new line.5418902 phases=3 bus1=12731543 bus2=9665659 linecode=Cable_230V_25_CU length=0.803 units=m
new line.5423061 phases=3 bus1=9670119 bus2=12963506 linecode=Cable_230V_4_CU length=0.38 units=m
new line.5423062 phases=3 bus1=15887323 bus2=12963509 linecode=Cable_230V_0.0225_CU length=0.234 units=m
new line.5423159 phases=3 bus1=12895826 bus2=9667842 linecode=Cable_230V_4_CU length=1.71 units=m
new line.8858335 phases=3 bus1=12810311 bus2=15891076 linecode=Cable_230V_0.1_CU length=0.326 units=m
new line.8871862 phases=3 bus1=12810281 bus2=12810311 linecode=Cable_230V_0.1_CU length=3.84 units=m
new line.5426546 phases=3 bus1=12810311 bus2=9665660 linecode=Cable_230V_25_CU length=0.247 units=m
new line.5430652 phases=3 bus1=15886305 bus2=9665662 linecode=Cable_230V_25_CU length=0.545 units=m
new line.5430653 phases=3 bus1=12803949 bus2=13559186 linecode=Cable_230V_25_CU length=1.15 units=m
new line.5442262 phases=3 bus1=13478093 bus2=13478091 linecode=Cable_230V_95_AL length=0.743 units=m
new line.8890683 phases=3 bus1=15868914 bus2=13478093 linecode=Cable_230V_0.1_CU length=1.67 units=m
new line.5442261 phases=3 bus1=13439445 bus2=13478090 linecode=Cable_230V_4_CU length=2.42 units=m
new line.5444370 phases=3 bus1=14069426 bus2=13518948 linecode=Cable_230V_0.0225_CU length=0.291 units=m
new line.6578174 phases=3 bus1=15717533 bus2=10639855 linecode=Cable_230V_25_CU length=2.25 units=m
new line.6612181 phases=3 bus1=14299763 bus2=17502873 linecode=Cable_230V_25_CU length=2.09 units=m
new line.7017461 phases=3 bus1=15891076 bus2=12810375 linecode=UNKNOWN_LV_Cable_M length=0.322 units=m
new line.8850197 phases=3 bus1=14064537 bus2=15716760 linecode=Cable_230V_0.25_AL length=0.326 units=m
new line.8863676 phases=3 bus1=15716760 bus2=12895826 linecode=Cable_230V_0.25_AL length=2.84 units=m
new line.8877749 phases=3 bus1=15860490 bus2=15887323 linecode=Cable_230V_0.0225_CU length=1.46 units=m
new line.8850198 phases=3 bus1=15860490 bus2=14069397 linecode=Cable_230V_25_CU length=1.66 units=m
new line.8858354 phases=3 bus1=14069088 bus2=15860490 linecode=Cable_230V_0.0225_CU length=5.52 units=m
new line.8850194 phases=3 bus1=12950240 bus2=12950336 linecode=Cable_230V_25_CU length=0.392 units=m
new line.8850193 phases=3 bus1=15891056 bus2=12731543 linecode=Cable_230V_95_AL length=3.26 units=m
new line.8885437 phases=3 bus1=15717533 bus2=15891056 linecode=Cable_230V_0.15_CU length=3.55 units=m
new line.11630809 phases=3 bus1=9067036 bus2=9493834 linecode=default length=0.138 units=m
new line.5436380 phases=3 bus1=14287820 bus2=14003319 linecode=Cable_230V_0.25_CU length=0.181 units=m
new line.5436387 phases=3 bus1=14003319 bus2=12731411 linecode=Cable_230V_0.25_CU length=2.82 units=m
new line.5436385 phases=3 bus1=14003319 bus2=15891072 linecode=Cable_230V_185_AL_WAVE length=1.52 units=m
new line.5436389 phases=3 bus1=12824045 bus2=15891072 linecode=Cable_230V_185_AL_WAVE length=6.77 units=m
new line.5441584 phases=3 bus1=15892357 bus2=15886329 linecode=Cable_230V_0.25_CU length=3.79 units=m
new line.5446763 phases=3 bus1=15890104 bus2=10624411 linecode=Cable_230V_25_CU length=1.29 units=m
new line.5449438 phases=3 bus1=15868916 bus2=10620180 linecode=Cable_230V_25_CU length=1.0 units=m
new line.5449471 phases=3 bus1=14064656 bus2=10628580 linecode=Cable_230V_25_CU length=1.89 units=m
new line.5449477 phases=3 bus1=15891055 bus2=10628679 linecode=Cable_230V_25_CU length=1.29 units=m
new line.5451645 phases=3 bus1=14064536 bus2=10619168 linecode=Cable_230V_25_CU length=1.37 units=m
new line.5451646 phases=3 bus1=15718537 bus2=15890742 linecode=UNKNOWN_LV_Cable_M length=0.426 units=m
new line.5454662 phases=3 bus1=15890899 bus2=17952980 linecode=Cable_230V_95_AL length=1.43 units=m
new line.7412944 phases=3 bus1=17952980 bus2=17952981 linecode=CONNECTOR length=0.671 units=m
new line.11157727 phases=3 bus1=10737716 bus2=15707083 linecode=Cable_230V_25_CU length=1.53 units=m
new line.11157808 phases=3 bus1=10753690 bus2=15891068 linecode=Cable_230V_25_CU length=2.21 units=m
new line.11165215 phases=3 bus1=15892370 bus2=15890090 linecode=Cable_230V_95_AL length=4.19 units=m
new line.11165239 phases=3 bus1=15868916 bus2=14287856 linecode=Cable_230V_95_AL length=0.651 units=m
new line.11165264 phases=3 bus1=12506660 bus2=10643523 linecode=Cable_230V_25_CU length=1.16 units=m
new line.11171263 phases=3 bus1=15707083 bus2=10723586 linecode=Cable_230V_25_CU length=1.55 units=m
new line.11181547 phases=3 bus1=12654989 bus2=15892370 linecode=Cable_230V_95_AL length=2.79 units=m
new line.11185114 phases=3 bus1=15891068 bus2=12654989 linecode=Cable_230V_95_AL length=1.97 units=m
new line.11171344 phases=3 bus1=12654989 bus2=10745555 linecode=Cable_230V_25_CU length=2.18 units=m
new line.11171359 phases=3 bus1=15892359 bus2=10644290 linecode=Cable_230V_25_CU length=1.83 units=m
new line.11184912 phases=3 bus1=15707083 bus2=14431313 linecode=Cable_230V_95_AL length=2.1 units=m
...